8
Lattice="12.333280232210933 7.551956079682224e-16 0.0 0.0 12.046811074978026 0.0 0.0 0.0 11.772418258576291" Properties=species:S:1:pos:R:3:forces:R:3:magmoms:R:1 energy=-40.47854546769762 dipole="9.761030184088746e-15 -2.834388069762152e-14 4.913761891928614e-16" magmom=0.0 free_energy=-40.478545546568625 pbc="F F F"
C        5.40255269       6.02342355       5.88620913       0.00091415       0.00168201       0.00000000       0.00000000
C        6.93072754       6.02338752       5.88620913      -0.00091415      -0.00168201       0.00000000       0.00000000
H        5.00003311       6.53534128       6.77241826       0.00014494      -0.00101705       0.00097746       0.00000000
H        5.00003311       6.53534128       5.00000000       0.00014494      -0.00101705      -0.00097746       0.00000000
H        5.00000000       5.00000000       5.88620913      -0.00048503       0.00046594       0.00000000       0.00000000
H        7.33324712       5.51146979       6.77241826      -0.00014494       0.00101705       0.00097746       0.00000000
H        7.33328023       7.04681107       5.88620913       0.00048503      -0.00046594       0.00000000       0.00000000
H        7.33324712       5.51146979       5.00000000      -0.00014494       0.00101705      -0.00097746       0.00000000
